!-Generator IDFEditor 1.44
!-Option SortedOrder ViewInIPunits

!-NOTE: All comments with '!-' are ignored by the IDFEditor and are generated automatically.
!-      Use '!' comments if they need to be retained when using the IDFEditor.


!-   ===========  ALL OBJECTS IN CLASS: VERSION ===========

Version,
    8.8;                     !- Version Identifier


!-   ===========  ALL OBJECTS IN CLASS: SIMULATIONCONTROL ===========

SimulationControl,
    Yes,                     !- Do Zone Sizing Calculation
    No,                      !- Do System Sizing Calculation
    No,                      !- Do Plant Sizing Calculation
    No,                      !- Run Simulation for Sizing Periods
    Yes;                     !- Run Simulation for Weather File Run Periods


!-   ===========  ALL OBJECTS IN CLASS: BUILDING ===========

Building,
    Portland Office With Double Thickness Insulation ,  !- Name
    0,                       !- North Axis {deg}
    Urban,                   !- Terrain
    0.04,                    !- Loads Convergence Tolerance Value
    0.4,                     !- Temperature Convergence Tolerance Value {deltaC}
    FullInteriorAndExteriorWithReflections,  !- Solar Distribution
    365,                     !- Maximum Number of Warmup Days
    6;                       !- Minimum Number of Warmup Days


!-   ===========  ALL OBJECTS IN CLASS: SHADOWCALCULATION ===========

ShadowCalculation,
    AverageOverDaysInFrequency,  !- Calculation Method
    31,                      !- Calculation Frequency
    15000,                   !- Maximum Figures in Shadow Overlap Calculations
    SutherlandHodgman,       !- Polygon Clipping Algorithm
    SimpleSkyDiffuseModeling;!- Sky Diffuse Modeling Algorithm


!-   ===========  ALL OBJECTS IN CLASS: HEATBALANCEALGORITHM ===========

HeatBalanceAlgorithm,
    ConductionTransferFunction,  !- Algorithm
    2000;                    !- Surface Temperature Upper Limit {C}


!-   ===========  ALL OBJECTS IN CLASS: HEATBALANCESETTINGS:CONDUCTIONFINITEDIFFERENCE ===========

HeatBalanceSettings:ConductionFiniteDifference,
    FullyImplicitFirstOrder, !- Difference Scheme
    3,                       !- Space Discretization Constant
    1,                       !- Relaxation Factor
    0.01;                    !- Inside Face Surface Temperature Convergence Criteria


!-   ===========  ALL OBJECTS IN CLASS: TIMESTEP ===========

Timestep,
    20;                      !- Number of Timesteps per Hour


!-   ===========  ALL OBJECTS IN CLASS: SIZINGPERIOD:WEATHERFILECONDITIONTYPE ===========

SizingPeriod:WeatherFileConditionType,
    Extreme Summer,          !- Name
    SummerExtreme,           !- Period Selection
    Monday,                  !- Day of Week for Start Day
    Yes,                     !- Use Weather File Daylight Saving Period
    Yes;                     !- Use Weather File Rain and Snow Indicators

SizingPeriod:WeatherFileConditionType,
    Extreme Winter,          !- Name
    WinterExtreme,           !- Period Selection
    Monday,                  !- Day of Week for Start Day
    Yes,                     !- Use Weather File Daylight Saving Period
    Yes;                     !- Use Weather File Rain and Snow Indicators


!-   ===========  ALL OBJECTS IN CLASS: RUNPERIOD ===========

RunPeriod,
    Annual,                  !- Name
    1,                       !- Begin Month
    1,                       !- Begin Day of Month
    12,                      !- End Month
    31,                      !- End Day of Month
    UseWeatherFile,          !- Day of Week for Start Day
    No,                      !- Use Weather File Holidays and Special Days
    Yes,                     !- Use Weather File Daylight Saving Period
    Yes,                     !- Apply Weekend Holiday Rule
    Yes,                     !- Use Weather File Rain Indicators
    Yes,                     !- Use Weather File Snow Indicators
    1;                       !- Number of Times Runperiod to be Repeated


!-   ===========  ALL OBJECTS IN CLASS: SITE:GROUNDREFLECTANCE:SNOWMODIFIER ===========

Site:GroundReflectance:SnowModifier,
    2,                       !- Ground Reflected Solar Modifier
    2;                       !- Daylighting Ground Reflected Solar Modifier


!-   ===========  ALL OBJECTS IN CLASS: SCHEDULETYPELIMITS ===========

! Not limited
ScheduleTypeLimits,
    Any Number;              !- Name

ScheduleTypeLimits,
    Fraction,                !- Name
    0.0,                     !- Lower Limit Value
    1.0,                     !- Upper Limit Value
    CONTINUOUS;              !- Numeric Type

ScheduleTypeLimits,
    Temperature,             !- Name
    -60,                     !- Lower Limit Value
    200,                     !- Upper Limit Value
    CONTINUOUS;              !- Numeric Type

ScheduleTypeLimits,
    Control Type,            !- Name
    0,                       !- Lower Limit Value
    4,                       !- Upper Limit Value
    DISCRETE;                !- Numeric Type

ScheduleTypeLimits,
    On/Off,                  !- Name
    0,                       !- Lower Limit Value
    1,                       !- Upper Limit Value
    DISCRETE;                !- Numeric Type

ScheduleTypeLimits,
    Number,                  !- Name
    1,                       !- Lower Limit Value
    4,                       !- Upper Limit Value
    DISCRETE;                !- Numeric Type

ScheduleTypeLimits,
    Integer ID Six Digits,   !- Name
    -999999,                 !- Lower Limit Value
    999999,                  !- Upper Limit Value
    DISCRETE;                !- Numeric Type

!
! -------------------------------------------------------------
! New objects created from ExpandObjects
! -------------------------------------------------------------
!
ScheduleTypeLimits,
    HVACTemplate Any Number; !- Name


!-   ===========  ALL OBJECTS IN CLASS: SCHEDULE:COMPACT ===========

Schedule:Compact,
    Office_Activity,         !- Name
    Any Number,              !- Schedule Type Limits Name
    Through: 12/31,          !- Field 1
    For: AllDays,            !- Field 2
    Until: 24:00,            !- Field 3
    120;                     !- Field 4

Schedule:Compact,
    Office_WorkEfficiency,   !- Name
    Fraction,                !- Schedule Type Limits Name
    Through: 12/31,          !- Field 1
    For: AllDays,            !- Field 2
    Until: 24:00,            !- Field 3
    0.0;                     !- Field 4

Schedule:Compact,
    Office_AirVolicity,      !- Name
    Any Number,              !- Schedule Type Limits Name
    Through: 12/31,          !- Field 1
    For: AllDays,            !- Field 2
    Until: 24:00,            !- Field 3
    0.2;                     !- Field 4

Schedule:Compact,
    Heating SP Sch,          !- Name
    Temperature,             !- Schedule Type Limits Name
    Through: 31 Dec,         !- Field 1
    For: AllDays,            !- Field 2
    Until: 07:00,            !- Field 3
    17.7778,                 !- Field 4
    Until: 18:00,            !- Field 5
    21.111,                  !- Field 6
    Until 24:00,             !- Field 7
    17.7778;                 !- Field 8

Schedule:Compact,
    Cooling SP Sch,          !- Name
    Temperature,             !- Schedule Type Limits Name
    Through: 31 Dec,         !- Field 1
    For: AllDays,            !- Field 2
    Until: 06:00,            !- Field 3
    29.4444,                 !- Field 4
    Until 18:00,             !- Field 5
    24.444,                  !- Field 6
    Until: 24:00,            !- Field 7
    29.4444;                 !- Field 8

Schedule:Compact,
    INFIL_SCH_PNNL,          !- Name
    fraction,                !- Schedule Type Limits Name
    Through: 12/31,          !- Field 1
    For: Weekdays SummerDesignDay,  !- Field 2
    Until: 06:00,            !- Field 3
    1.0,                     !- Field 4
    Until: 22:00,            !- Field 5
    0.25,                    !- Field 6
    Until: 24:00,            !- Field 7
    1.0,                     !- Field 8
    For: Saturday WinterDesignDay,  !- Field 9
    Until: 06:00,            !- Field 10
    1.0,                     !- Field 11
    Until: 18:00,            !- Field 12
    0.25,                    !- Field 13
    Until: 24:00,            !- Field 14
    1.0,                     !- Field 15
    For: Sunday Holidays AllOtherDays,  !- Field 16
    Until: 24:00,            !- Field 17
    1.0;                     !- Field 18

Schedule:Compact,
    Office_Equipment,        !- Name
    Fraction,                !- Schedule Type Limits Name
    Through: 12/31,          !- Field 1
    For: Weekdays,           !- Field 2
    Until: 08:00,            !- Field 3
    .04,                     !- Field 4
    Until: 12:00,            !- Field 5
    0.90,                    !- Field 6
    Until: 13:00,            !- Field 7
    0.80,                    !- Field 8
    Until: 17:00,            !- Field 9
    0.90,                    !- Field 10
    Until: 18:00,            !- Field 11
    0.50,                    !- Field 12
    Until: 24:00,            !- Field 13
    .04,                     !- Field 14
    For: SummerDesignDay,    !- Field 15
    Until: 24:00,            !- Field 16
    1.0,                     !- Field 17
    For: Saturday,           !- Field 18
    Until: 06:00,            !- Field 19
    .04,                     !- Field 20
    Until: 08:00,            !- Field 21
    0.4,                     !- Field 22
    Until: 12:00,            !- Field 23
    0.5,                     !- Field 24
    Until: 17:00,            !- Field 25
    0.35,                    !- Field 26
    Until: 24:00,            !- Field 27
    .04,                     !- Field 28
    For: WinterDesignDay,    !- Field 29
    Until: 24:00,            !- Field 30
    0.0,                     !- Field 31
    For: Sunday Holidays AllOtherDays,  !- Field 32
    Until: 24:00,            !- Field 33
    .04;                     !- Field 34

Schedule:Compact,
    Office_Occupancy,        !- Name
    Fraction,                !- Schedule Type Limits Name
    Through: 12/31,          !- Field 1
    For: Weekdays,           !- Field 2
    Until: 06:00,            !- Field 3
    0.0,                     !- Field 4
    Until: 07:00,            !- Field 5
    0.1,                     !- Field 6
    Until: 08:00,            !- Field 7
    0.2,                     !- Field 8
    Until: 12:00,            !- Field 9
    0.95,                    !- Field 10
    Until: 13:00,            !- Field 11
    0.5,                     !- Field 12
    Until: 17:00,            !- Field 13
    0.95,                    !- Field 14
    Until: 18:00,            !- Field 15
    0.3,                     !- Field 16
    Until: 22:00,            !- Field 17
    0.1,                     !- Field 18
    Until: 24:00,            !- Field 19
    0.05,                    !- Field 20
    For: SummerDesignDay,    !- Field 21
    Until: 06:00,            !- Field 22
    0.0,                     !- Field 23
    Until: 22:00,            !- Field 24
    1.0,                     !- Field 25
    Until: 24:00,            !- Field 26
    0.05,                    !- Field 27
    For: Saturday,           !- Field 28
    Until: 06:00,            !- Field 29
    0.0,                     !- Field 30
    Until: 08:00,            !- Field 31
    0.1,                     !- Field 32
    Until: 12:00,            !- Field 33
    0.3,                     !- Field 34
    Until: 17:00,            !- Field 35
    0.1,                     !- Field 36
    Until: 19:00,            !- Field 37
    0.05,                    !- Field 38
    Until: 24:00,            !- Field 39
    0.0,                     !- Field 40
    For: WinterDesignDay,    !- Field 41
    Until: 24:00,            !- Field 42
    0.0,                     !- Field 43
    For: Sunday Holidays AllOtherDays,  !- Field 44
    Until: 06:00,            !- Field 45
    0.0,                     !- Field 46
    Until: 18:00,            !- Field 47
    0.05,                    !- Field 48
    Until: 24:00,            !- Field 49
    0.0;                     !- Field 50

Schedule:Compact,
    Office_Lights,           !- Name
    Fraction,                !- Schedule Type Limits Name
    Through: 12/31,          !- Field 1
    For: Weekdays,           !- Field 2
    Until: 05:00,            !- Field 3
    0,                       !- Field 4
    Until: 07:00,            !- Field 5
    0.1,                     !- Field 6
    Until: 08:00,            !- Field 7
    0.3,                     !- Field 8
    Until: 17:00,            !- Field 9
    0.9,                     !- Field 10
    Until: 18:00,            !- Field 11
    0.5,                     !- Field 12
    Until: 20:00,            !- Field 13
    .3,                      !- Field 14
    Until: 22:00,            !- Field 15
    .2,                      !- Field 16
    Until: 23:00,            !- Field 17
    0.1,                     !- Field 18
    Until: 24:00,            !- Field 19
    0,                       !- Field 20
    For: SummerDesignDay,    !- Field 21
    Until: 24:00,            !- Field 22
    1.0,                     !- Field 23
    For: Saturday,           !- Field 24
    Until: 06:00,            !- Field 25
    0.05,                    !- Field 26
    Until: 08:00,            !- Field 27
    0.1,                     !- Field 28
    Until: 12:00,            !- Field 29
    0.3,                     !- Field 30
    Until: 17:00,            !- Field 31
    0.15,                    !- Field 32
    Until: 24:00,            !- Field 33
    0,                       !- Field 34
    For: WinterDesignDay,    !- Field 35
    Until: 24:00,            !- Field 36
    0.0,                     !- Field 37
    For: Sunday Holidays AllOtherDays,  !- Field 38
    Until: 24:00,            !- Field 39
    0;                       !- Field 40

Schedule:Compact,
    SCE_TimeOfDayPriceingSchedule,  !- Name
    Number,                  !- Schedule Type Limits Name
    Through: 5/31,           !- Field 1
    For: Weekdays,           !- Field 2
    Until: 08:00,            !- Field 3
    3,                       !- Field 4
    Until: 21:00,            !- Field 5
    4,                       !- Field 6
    Until: 24:00,            !- Field 7
    3,                       !- Field 8
    For: Weekends Holidays SummerDesignDay WinterDesignDay CustomDay1 CustomDay2 AllOtherDays,  !- Field 9
    Until: 24:00,            !- Field 10
    3,                       !- Field 11
    Through: 9/30,           !- Field 12
    For: Weekdays,           !- Field 13
    Until: 08:00,            !- Field 14
    3,                       !- Field 15
    Until: 12:00,            !- Field 16
    4,                       !- Field 17
    Until: 18:00,            !- Field 18
    1,                       !- Field 19
    Until: 23:00,            !- Field 20
    4,                       !- Field 21
    Until: 24:00,            !- Field 22
    3,                       !- Field 23
    For: Weekends Holidays SummerDesignDay WinterDesignDay CustomDay1 CustomDay2 AllOtherDays,  !- Field 24
    Until: 24:00,            !- Field 25
    3,                       !- Field 26
    Through: 12/31,          !- Field 27
    For: Weekdays,           !- Field 28
    Until: 08:00,            !- Field 29
    3,                       !- Field 30
    Until: 21:00,            !- Field 31
    4,                       !- Field 32
    Until: 24:00,            !- Field 33
    3,                       !- Field 34
    For: Weekends Holidays SummerDesignDay WinterDesignDay CustomDay1 CustomDay2 AllOtherDays,  !- Field 35
    Until: 24:00,            !- Field 36
    3;                       !- Field 37

Schedule:Compact,
    TwoSeasonSchedule,       !- Name
    Number,                  !- Schedule Type Limits Name
    Through: 5/31,           !- Field 1
    For: AllDays,            !- Field 2
    Until: 24:00,            !- Field 3
    1,                       !- Field 4
    Through: 9/30,           !- Field 5
    For: AllDays,            !- Field 6
    Until: 24:00,            !- Field 7
    3,                       !- Field 8
    Through: 12/31,          !- Field 9
    For: AllDays,            !- Field 10
    Until: 24:00,            !- Field 11
    1;                       !- Field 12

Schedule:Compact,
    HVACTemplate-Always 4,   !- Name
    HVACTemplate Any Number, !- Schedule Type Limits Name
    Through: 12/31,          !- Field 1
    For: AllDays,            !- Field 2
    Until: 24:00,            !- Field 3
    4;                       !- Field 4

Schedule:Compact,
    Windows,                 !- Name
    Any Number,              !- Schedule Type Limits Name
    Through: 12/31,          !- Field 1
    For: AllDays,            !- Field 2
    Until: 24:00,            !- Field 3
    1;                       !- Field 4


!-   ===========  ALL OBJECTS IN CLASS: MATERIAL ===========

Material,
    Gypsum Board,            !- Name
    MediumSmooth,            !- Roughness
    0.0159,                  !- Thickness {m}
    0.16,                    !- Conductivity {W/m-K}
    800,                     !- Density {kg/m3}
    1090,                    !- Specific Heat {J/kg-K}
    0.9,                     !- Thermal Absorptance
    0.7,                     !- Solar Absorptance
    0.7;                     !- Visible Absorptance

Material,
    FloorTile,               !- Name
    MediumSmooth,            !- Roughness
    0.0127,                  !- Thickness {m}
    0.057,                   !- Conductivity {W/m-K}
    700,                     !- Density {kg/m3}
    590,                     !- Specific Heat {J/kg-K}
    0.9,                     !- Thermal Absorptance
    0.7,                     !- Solar Absorptance
    0.7;                     !- Visible Absorptance

Material,
    CeilingTiles,            !- Name
    Rough,                   !- Roughness
    0.0008,                  !- Thickness {m}
    0.0560,                  !- Conductivity {W/m-K}
    380.00,                  !- Density {kg/m3}
    1000.00,                 !- Specific Heat {J/kg-K}
    0.9,                     !- Thermal Absorptance
    0.7,                     !- Solar Absorptance
    0.7;                     !- Visible Absorptance

Material,
    EIFS Or Stucco Finish,   !- Name
    VeryRough,               !- Roughness
    0.0095,                  !- Thickness {m}
    0.72,                    !- Conductivity {W/m-K}
    1856,                    !- Density {kg/m3}
    840,                     !- Specific Heat {J/kg-K}
    0.9,                     !- Thermal Absorptance
    0.7,                     !- Solar Absorptance
    0.7;                     !- Visible Absorptance

Material,
    OutsideRoof_BaselineLowSlopeRoof_SRI78,  !- Name
    VeryRough,               !- Roughness
    0.005,                   !- Thickness {m}
    0.5,                     !- Conductivity {W/m-K}
    500,                     !- Density {kg/m3}
    500,                     !- Specific Heat {J/kg-K}
    0.9,                     !- Thermal Absorptance
    0.36,                    !- Solar Absorptance
    0.36;                    !- Visible Absorptance

Material,
    OutsideRoof_LowSlopeRoof_SRI85,  !- Name
    VeryRough,               !- Roughness
    0.005,                   !- Thickness {m}
    0.5,                     !- Conductivity {W/m-K}
    500,                     !- Density {kg/m3}
    500,                     !- Specific Heat {J/kg-K}
    0.9,                     !- Thermal Absorptance
    0.3,                     !- Solar Absorptance
    0.3;                     !- Visible Absorptance

Material,
    MW_IEED_Roof_Ridged_CZ_4,!- Name
    MediumRough,             !- Roughness
    0.0015621,               !- Thickness {m}
    0.00275,                 !- Conductivity {W/m-K}
    72,                      !- Density {kg/m3}
    1680,                    !- Specific Heat {J/kg-K}
    0.9,                     !- Thermal Absorptance
    0.7,                     !- Solar Absorptance
    0.7;                     !- Visible Absorptance

Material,
    MassWallciRigid_CZ_4,    !- Name
    MediumRough,             !- Roughness
    0.0508,                  !- Thickness {m}
    0.039,                   !- Conductivity {W/m-K}
    72,                      !- Density {kg/m3}
    1680,                    !- Specific Heat {J/kg-K}
    0.9,                     !- Thermal Absorptance
    0.7,                     !- Solar Absorptance
    0.7;                     !- Visible Absorptance

Material,
    Roof_Rigid_IEAD_CZ_2-8,  !- Name
    MediumRough,             !- Roughness
    0.01,                    !- Thickness {m}
    0.00275,                 !- Conductivity {W/m-K}
    72,                      !- Density {kg/m3}
    1680,                    !- Specific Heat {J/kg-K}
    0.9,                     !- Thermal Absorptance
    0.7,                     !- Solar Absorptance
    0.7;                     !- Visible Absorptance

Material,
    DoubleT_Roof_Rigid_IEAD_CZ_2-8,  !- Name
    MediumRough,             !- Roughness
    0.02,                    !- Thickness {m}
    0.00275,                 !- Conductivity {W/m-K}
    72,                      !- Density {kg/m3}
    1680,                    !- Specific Heat {J/kg-K}
    0.9,                     !- Thermal Absorptance
    0.7,                     !- Solar Absorptance
    0.7;                     !- Visible Absorptance

Material,
    OutboundciRigid-SFWall_CZ_4-8,  !- Name
    MediumRough,             !- Roughness
    0.0508,                  !- Thickness {m}
    0.039,                   !- Conductivity {W/m-K}
    72,                      !- Density {kg/m3}
    1680,                    !- Specific Heat {J/kg-K}
    0.9,                     !- Thermal Absorptance
    0.7,                     !- Solar Absorptance
    0.7;                     !- Visible Absorptance

Material,
    InboundCellularGlassSFWall_CZ_4-8,  !- Name
    MediumRough,             !- Roughness
    0.0508,                  !- Thickness {m}
    0.0384,                  !- Conductivity {W/m-K}
    136,                     !- Density {kg/m3}
    750,                     !- Specific Heat {J/kg-K}
    0.9,                     !- Thermal Absorptance
    0.7,                     !- Solar Absorptance
    0.7;                     !- Visible Absorptance

Material,
    DoubleTInboundCellularGlassSFWall_CZ_4-8,  !- Name
    MediumRough,             !- Roughness
    0.1016,                  !- Thickness {m}
    0.0384,                  !- Conductivity {W/m-K}
    136,                     !- Density {kg/m3}
    750,                     !- Specific Heat {J/kg-K}
    0.9,                     !- Thermal Absorptance
    0.7,                     !- Solar Absorptance
    0.7;                     !- Visible Absorptance

Material,
    NorthInboundCellularGlassSFWall_CZ_4-8,  !- Name
    MediumRough,             !- Roughness
    0.0508,                  !- Thickness {m}
    0.0384,                  !- Conductivity {W/m-K}
    136,                     !- Density {kg/m3}
    750,                     !- Specific Heat {J/kg-K}
    0.9,                     !- Thermal Absorptance
    0.7,                     !- Solar Absorptance
    0.7;                     !- Visible Absorptance

Material,
    EastInboundCellularGlassSFWall_CZ_4-8,  !- Name
    MediumRough,             !- Roughness
    0.0508,                  !- Thickness {m}
    0.0384,                  !- Conductivity {W/m-K}
    136,                     !- Density {kg/m3}
    750,                     !- Specific Heat {J/kg-K}
    0.9,                     !- Thermal Absorptance
    0.7,                     !- Solar Absorptance
    0.7;                     !- Visible Absorptance

Material,
    SouthInboundCellularGlassSFWall_CZ_4-8,  !- Name
    MediumRough,             !- Roughness
    0.0508,                  !- Thickness {m}
    0.0384,                  !- Conductivity {W/m-K}
    136,                     !- Density {kg/m3}
    750,                     !- Specific Heat {J/kg-K}
    0.9,                     !- Thermal Absorptance
    0.7,                     !- Solar Absorptance
    0.7;                     !- Visible Absorptance

Material,
    WestInboundCellularGlassSFWall_CZ_4-8,  !- Name
    MediumRough,             !- Roughness
    0.0508,                  !- Thickness {m}
    0.0384,                  !- Conductivity {W/m-K}
    136,                     !- Density {kg/m3}
    750,                     !- Specific Heat {J/kg-K}
    0.9,                     !- Thermal Absorptance
    0.7,                     !- Solar Absorptance
    0.7;                     !- Visible Absorptance

Material,
    NorthDoubleTInboundCellularGlassSFWall_CZ_4-8,  !- Name
    MediumRough,             !- Roughness
    0.1016,                  !- Thickness {m}
    0.0384,                  !- Conductivity {W/m-K}
    136,                     !- Density {kg/m3}
    750,                     !- Specific Heat {J/kg-K}
    0.9,                     !- Thermal Absorptance
    0.7,                     !- Solar Absorptance
    0.7;                     !- Visible Absorptance

Material,
    EastDoubleTInboundCellularGlassSFWall_CZ_4-8,  !- Name
    MediumRough,             !- Roughness
    0.1016,                  !- Thickness {m}
    0.0384,                  !- Conductivity {W/m-K}
    136,                     !- Density {kg/m3}
    750,                     !- Specific Heat {J/kg-K}
    0.9,                     !- Thermal Absorptance
    0.7,                     !- Solar Absorptance
    0.7;                     !- Visible Absorptance

Material,
    SouthDoubleTInboundCellularGlassSFWall_CZ_4-8,  !- Name
    MediumRough,             !- Roughness
    0.1016,                  !- Thickness {m}
    0.0384,                  !- Conductivity {W/m-K}
    136,                     !- Density {kg/m3}
    750,                     !- Specific Heat {J/kg-K}
    0.9,                     !- Thermal Absorptance
    0.7,                     !- Solar Absorptance
    0.7;                     !- Visible Absorptance

Material,
    WestDoubleTInboundCellularGlassSFWall_CZ_4-8,  !- Name
    MediumRough,             !- Roughness
    0.1016,                  !- Thickness {m}
    0.0384,                  !- Conductivity {W/m-K}
    136,                     !- Density {kg/m3}
    750,                     !- Specific Heat {J/kg-K}
    0.9,                     !- Thermal Absorptance
    0.7,                     !- Solar Absorptance
    0.7;                     !- Visible Absorptance

Material,
    BioPCMDSCM27Q23,         !- Name
    VeryRough,               !- Roughness
    0.011,                   !- Thickness {m}
    0.2,                     !- Conductivity {W/m-K}
    235,                     !- Density {kg/m3}
    1970,                    !- Specific Heat {J/kg-K}
    0.9,                     !- Thermal Absorptance
    0.1,                     !- Solar Absorptance
    0.5;                     !- Visible Absorptance

Material,
    BioPCMDSCM51Q23,         !- Name
    VeryRough,               !- Roughness
    0.020828,                !- Thickness {m}
    0.2,                     !- Conductivity {W/m-K}
    235,                     !- Density {kg/m3}
    1970,                    !- Specific Heat {J/kg-K}
    0.9,                     !- Thermal Absorptance
    0.1,                     !- Solar Absorptance
    0.5;                     !- Visible Absorptance

Material,
    BioPCMDSCM91Q23,         !- Name
    VeryRough,               !- Roughness
    0.037084,                !- Thickness {m}
    0.2,                     !- Conductivity {W/m-K}
    235,                     !- Density {kg/m3}
    1970,                    !- Specific Heat {J/kg-K}
    0.9,                     !- Thermal Absorptance
    0.1,                     !- Solar Absorptance
    0.5;                     !- Visible Absorptance


!-   ===========  ALL OBJECTS IN CLASS: WINDOWMATERIAL:SIMPLEGLAZINGSYSTEM ===========

WindowMaterial:SimpleGlazingSystem,
    NorthDoublePaneClearWindows,  !- Name
    3.12,                    !- U-Factor {W/m2-K}
    0.4,                     !- Solar Heat Gain Coefficient
    0.55;                    !- Visible Transmittance

WindowMaterial:SimpleGlazingSystem,
    EastDoublePaneClearWindows,  !- Name
    3.12,                    !- U-Factor {W/m2-K}
    0.4,                     !- Solar Heat Gain Coefficient
    0.55;                    !- Visible Transmittance

WindowMaterial:SimpleGlazingSystem,
    SouthDoublePaneClearWindows,  !- Name
    3.12,                    !- U-Factor {W/m2-K}
    0.4,                     !- Solar Heat Gain Coefficient
    0.55;                    !- Visible Transmittance

WindowMaterial:SimpleGlazingSystem,
    WestDoublePaneClearWindows,  !- Name
    3.12,                    !- U-Factor {W/m2-K}
    0.4,                     !- Solar Heat Gain Coefficient
    0.55;                    !- Visible Transmittance

WindowMaterial:SimpleGlazingSystem,
    SkylightDoublePaneClear, !- Name
    3.12,                    !- U-Factor {W/m2-K}
    0.4,                     !- Solar Heat Gain Coefficient
    0.55;                    !- Visible Transmittance

